/*--------------------------------*- C++ -*----------------------------------*\
| =========                 |                                                 |
| \\      /  F ield         | OpenFOAM: The Open Source CFD Toolbox           |
|  \\    /   O peration     | Version:  5                                     |
|   \\  /    A nd           | Web:      www.OpenFOAM.org                      |
|    \\/     M anipulation  |                                                 |
\*---------------------------------------------------------------------------*/
FoamFile
{
    version     2.0;
    format      ascii;
    class       dictionary;
    location    "system";
    object      controlDict;
}
// * * * * * * * * * * * * * * * * * * * * * * * * * * * * * * * * * * * * * //

application     multiphaseInterCyclicFoam;

startFrom       latestTime;

startTime       0;

stopAt          endTime;

endTime         200;

deltaT          0.0000001;

writeControl    adjustableRunTime;

writeInterval   0.80;

purgeWrite      0;

writeFormat     binary;

writePrecision  6;

writeCompression uncompressed;

timeFormat      general;

timePrecision   6;

runTimeModifiable yes;

adjustTimeStep  on;

maxCo           0.48;
maxAlphaCo      0.48;

maxDeltaT       1.0;


libs (
//    "libsimpleFunctionObjects.so"
    "libsimpleSwakFunctionObjects.so"
    "libswakFunctionObjects.so"
    "libgroovyBC.so"
    "libOpenFOAM.so"
);

//functions
//{
// probes
//{
//libs            ("libforces.so");
//type             probes;
//writeControl     writeTime;
//fields (p U);
//probeLocations
//(
//    (0.8 0.008 0.05)
//    (0.8 0.005 0.05)
//);
//}


// ************************************************************************* //
