/*--------------------------------*- C++ -*----------------------------------*\
| =========                 |                                                 |
| \\      /  F ield         | OpenFOAM: The Open Source CFD Toolbox           |
|  \\    /   O peration     | Version:  5                                     |
|   \\  /    A nd           | Web:      www.OpenFOAM.org                      |
|    \\/     M anipulation  |                                                 |
\*---------------------------------------------------------------------------*/
FoamFile
{
    version     2.0;
    format      ascii;
    class       uniformDimensionedVectorField;
    location    "constant";
    object      g;
}
// * * * * * * * * * * * * * * * * * * * * * * * * * * * * * * * * * * * * * //
// * * * * * * * * * * * * * * * * * * * * * * * * * * * * * * * * * * * * * //
dimensions      [0 1 -2 0 0 0 0];

// slopeSin 0.060;
// // slopeCos #eval "sqrt(1.0-$slopeSin*$slopeSin)";
// slopeCos ${{ sqrt(1.0-$slopeSin*$slopeSin) }};
// fr1 0.60;
// // gx #eval "$(-1.0)*grav*$slopeSin";
// gx ${{ (1.0)*(1.0/($fr1*$fr1))*$slopeSin }};
// // gy #eval "$(-1.0)*grav*$slopeCos";
// gy ${{ (-1.0)*(1.0/($fr1*$fr1))*$slopeCos }};

slopeSin 0.060;
// slopeCos #eval "sqrt(1.0-$slopeSin*$slopeSin)";
slopeCos #calc "sqrt(1.0-$slopeSin*$slopeSin)";
fr1 0.60;
// gx #eval "$(-1.0)*grav*$slopeSin";
gx #calc "(1.0)*(1.0/($fr1*$fr1))*$slopeSin";
// gy #eval "$(-1.0)*grav*$slopeCos";
gy #calc "(-1.0)*(1.0/($fr1*$fr1))*$slopeCos";

dimensions      [0 1 -2 0 0 0 0];
value           ($gx $gy 0.0);
// value           (0.06 -0.998198 0);

// ************************************************************************* //
